MODEL 1
REMARK VINA RESULT:    -7.888      0.000      0.000
REMARK INTER + INTRA:         -13.210
REMARK INTER:                 -11.808
REMARK INTRA:                  -1.402
REMARK UNBOUND:                -1.402
REMARK  Name = 
REMARK  9 active torsions:
REMARK  status: ('A' for Active; 'I' for Inactive)
REMARK    1  A    between atoms: C_3  and  C_26
REMARK    2  A    between atoms: C_5  and  N_7
REMARK    3  A    between atoms: C_8  and  C_10
REMARK    4  A    between atoms: C_10  and  O_11
REMARK    5  A    between atoms: O_11  and  C_12
REMARK    6  A    between atoms: C_12  and  C_13
REMARK    7  A    between atoms: N_15  and  C_16
REMARK    8  A    between atoms: C_17  and  C_23
REMARK    9  A    between atoms: C_23  and  O_25
REMARK                            x       y       z     vdW  Elec       q    Type
REMARK                         _______ _______ _______ _____ _____    ______ ____
ROOT
ATOM      1  O   UNL     1     -10.328 -13.012   5.293  0.00  0.00    -0.361 OA
ENDROOT
BRANCH   1   2
ATOM      2  C   UNL     1      -9.277 -12.451   4.498  0.00  0.00    +0.256 C 
BRANCH   2   4
ATOM      3  N   UNL     1     -11.180 -11.698   3.188  0.00  0.00    -0.284 N 
ATOM      4  C   UNL     1      -9.844 -12.070   3.139  0.00  0.00    +0.243 C 
ATOM      5  O   UNL     1      -9.112 -12.066   2.151  0.00  0.00    -0.273 OA
ATOM      6  H   UNL     1     -11.622 -11.717   4.104  0.00  0.00    +0.155 HD
BRANCH   3  11
ATOM      7  C   UNL     1     -13.331 -11.868   0.170  0.00  0.00    +0.002 A 
ATOM      8  C   UNL     1     -13.703 -10.534   0.013  0.00  0.00    +0.009 A 
ATOM      9  C   UNL     1     -13.203  -9.559   0.878  0.00  0.00    -0.013 A 
ATOM     10  C   UNL     1     -12.322  -9.943   1.893  0.00  0.00    +0.032 A 
ATOM     11  C   UNL     1     -11.980 -11.283   2.101  0.00  0.00    +0.034 A 
ATOM     12  C   UNL     1     -12.477 -12.245   1.214  0.00  0.00    +0.023 A 
BRANCH   9  13
ATOM     13  C   UNL     1     -13.627  -8.174   0.803  0.00  0.00    +0.020 A 
ATOM     14  C   UNL     1     -13.296  -7.193   1.714  0.00  0.00    +0.203 A 
ATOM     15  O   UNL     1     -13.822  -5.995   1.344  0.00  0.00    -0.470 OA
ATOM     16  C   UNL     1     -14.500  -6.203   0.187  0.00  0.00    +0.195 A 
ATOM     17  C   UNL     1     -14.426  -7.526  -0.184  0.00  0.00    +0.049 A 
ENDBRANCH   9  13
ENDBRANCH   3  11
ENDBRANCH   2   4
ENDBRANCH   1   2
BRANCH   1  18
ATOM     18  C   UNL     1     -10.347 -14.432   5.215  0.00  0.00    +0.256 C 
BRANCH  18  19
ATOM     19  C   UNL     1     -11.688 -14.929   4.696  0.00  0.00    +0.243 C 
ATOM     20  O   UNL     1     -12.443 -14.204   4.048  0.00  0.00    -0.273 OA
ATOM     21  N   UNL     1     -11.906 -16.277   4.961  0.00  0.00    -0.283 N 
ATOM     22  H   UNL     1     -11.575 -16.571   5.880  0.00  0.00    +0.155 HD
BRANCH  21  23
ATOM     23  C   UNL     1     -13.031 -16.949   4.427  0.00  0.00    +0.048 A 
ATOM     24  C   UNL     1     -14.164 -17.230   5.209  0.00  0.00    +0.081 A 
ATOM     25  C   UNL     1     -15.276 -17.848   4.618  0.00  0.00    +0.036 A 
ATOM     26  C   UNL     1     -15.227 -18.244   3.283  0.00  0.00    +0.042 A 
ATOM     27  C   UNL     1     -14.088 -18.017   2.518  0.00  0.00    +0.022 A 
ATOM     28  C   UNL     1     -12.997 -17.361   3.087  0.00  0.00    +0.025 A 
ATOM     29 CL   UNL     1     -16.596 -19.007   2.576  0.00  0.00    -0.084 Cl
BRANCH  24  30
ATOM     30  C   UNL     1     -14.245 -16.764   6.619  0.00  0.00    +0.339 C 
ATOM     31  O   UNL     1     -13.791 -15.693   6.983  0.00  0.00    -0.245 OA
BRANCH  30  32
ATOM     32  O   UNL     1     -14.799 -17.653   7.462  0.00  0.00    -0.477 OA
ATOM     33  H   UNL     1     -14.241 -18.405   7.731  0.00  0.00    +0.295 HD
ENDBRANCH  30  32
ENDBRANCH  24  30
ENDBRANCH  21  23
ENDBRANCH  18  19
ENDBRANCH   1  18
TORSDOF 9
ENDMDL
MODEL 2
REMARK VINA RESULT:    -7.805      4.631      6.458
REMARK INTER + INTRA:         -13.085
REMARK INTER:                 -12.236
REMARK INTRA:                  -0.849
REMARK UNBOUND:                -1.402
REMARK  Name = 
REMARK  9 active torsions:
REMARK  status: ('A' for Active; 'I' for Inactive)
REMARK    1  A    between atoms: C_3  and  C_26
REMARK    2  A    between atoms: C_5  and  N_7
REMARK    3  A    between atoms: C_8  and  C_10
REMARK    4  A    between atoms: C_10  and  O_11
REMARK    5  A    between atoms: O_11  and  C_12
REMARK    6  A    between atoms: C_12  and  C_13
REMARK    7  A    between atoms: N_15  and  C_16
REMARK    8  A    between atoms: C_17  and  C_23
REMARK    9  A    between atoms: C_23  and  O_25
REMARK                            x       y       z     vdW  Elec       q    Type
REMARK                         _______ _______ _______ _____ _____    ______ ____
ROOT
ATOM      1  O   UNL     1      -9.677 -12.749   3.306  0.00  0.00    -0.361 OA
ENDROOT
BRANCH   1   2
ATOM      2  C   UNL     1     -11.028 -12.304   3.478  0.00  0.00    +0.256 C 
BRANCH   2   4
ATOM      3  N   UNL     1     -12.592 -11.133   2.033  0.00  0.00    -0.284 N 
ATOM      4  C   UNL     1     -11.289 -11.158   2.513  0.00  0.00    +0.243 C 
ATOM      5  O   UNL     1     -10.399 -10.344   2.274  0.00  0.00    -0.273 OA
ATOM      6  H   UNL     1     -13.213 -11.862   2.373  0.00  0.00    +0.155 HD
BRANCH   3  11
ATOM      7  C   UNL     1     -14.521  -9.729  -0.808  0.00  0.00    +0.002 A 
ATOM      8  C   UNL     1     -14.389  -8.358  -0.589  0.00  0.00    +0.009 A 
ATOM      9  C   UNL     1     -13.617  -7.888   0.475  0.00  0.00    -0.013 A 
ATOM     10  C   UNL     1     -12.978  -8.812   1.307  0.00  0.00    +0.032 A 
ATOM     11  C   UNL     1     -13.142 -10.191   1.136  0.00  0.00    +0.034 A 
ATOM     12  C   UNL     1     -13.904 -10.644   0.054  0.00  0.00    +0.023 A 
BRANCH   9  13
ATOM     13  C   UNL     1     -13.520  -6.476   0.790  0.00  0.00    +0.020 A 
ATOM     14  C   UNL     1     -13.619  -5.937   2.055  0.00  0.00    +0.203 A 
ATOM     15  O   UNL     1     -13.453  -4.587   2.018  0.00  0.00    -0.470 OA
ATOM     16  C   UNL     1     -13.249  -4.252   0.719  0.00  0.00    +0.195 A 
ATOM     17  C   UNL     1     -13.295  -5.370  -0.081  0.00  0.00    +0.049 A 
ENDBRANCH   9  13
ENDBRANCH   3  11
ENDBRANCH   2   4
ENDBRANCH   1   2
BRANCH   1  18
ATOM     18  C   UNL     1      -9.604 -13.904   2.479  0.00  0.00    +0.256 C 
BRANCH  18  19
ATOM     19  C   UNL     1      -8.190 -14.468   2.459  0.00  0.00    +0.243 C 
ATOM     20  O   UNL     1      -7.337 -14.110   3.272  0.00  0.00    -0.273 OA
ATOM     21  N   UNL     1      -8.017 -15.462   1.502  0.00  0.00    -0.283 N 
ATOM     22  H   UNL     1      -8.502 -15.272   0.625  0.00  0.00    +0.155 HD
BRANCH  21  23
ATOM     23  C   UNL     1      -6.813 -16.202   1.435  0.00  0.00    +0.048 A 
ATOM     24  C   UNL     1      -5.760 -15.826   0.585  0.00  0.00    +0.081 A 
ATOM     25  C   UNL     1      -4.565 -16.562   0.596  0.00  0.00    +0.036 A 
ATOM     26  C   UNL     1      -4.453 -17.698   1.395  0.00  0.00    +0.042 A 
ATOM     27  C   UNL     1      -5.512 -18.106   2.199  0.00  0.00    +0.022 A 
ATOM     28  C   UNL     1      -6.685 -17.354   2.226  0.00  0.00    +0.025 A 
ATOM     29 CL   UNL     1      -2.985 -18.593   1.391  0.00  0.00    -0.084 Cl
BRANCH  24  30
ATOM     30  C   UNL     1      -5.851 -14.586  -0.230  0.00  0.00    +0.339 C 
ATOM     31  O   UNL     1      -6.804 -14.343  -0.952  0.00  0.00    -0.245 OA
BRANCH  30  32
ATOM     32  O   UNL     1      -4.767 -13.795  -0.154  0.00  0.00    -0.477 OA
ATOM     33  H   UNL     1      -4.204 -13.748  -0.949  0.00  0.00    +0.295 HD
ENDBRANCH  30  32
ENDBRANCH  24  30
ENDBRANCH  21  23
ENDBRANCH  18  19
ENDBRANCH   1  18
TORSDOF 9
ENDMDL
MODEL 3
REMARK VINA RESULT:    -7.700      5.163      7.030
REMARK INTER + INTRA:         -12.928
REMARK INTER:                 -12.237
REMARK INTRA:                  -0.691
REMARK UNBOUND:                -1.402
REMARK  Name = 
REMARK  9 active torsions:
REMARK  status: ('A' for Active; 'I' for Inactive)
REMARK    1  A    between atoms: C_3  and  C_26
REMARK    2  A    between atoms: C_5  and  N_7
REMARK    3  A    between atoms: C_8  and  C_10
REMARK    4  A    between atoms: C_10  and  O_11
REMARK    5  A    between atoms: O_11  and  C_12
REMARK    6  A    between atoms: C_12  and  C_13
REMARK    7  A    between atoms: N_15  and  C_16
REMARK    8  A    between atoms: C_17  and  C_23
REMARK    9  A    between atoms: C_23  and  O_25
REMARK                            x       y       z     vdW  Elec       q    Type
REMARK                         _______ _______ _______ _____ _____    ______ ____
ROOT
ATOM      1  O   UNL     1      -9.248 -13.272   2.313  0.00  0.00    -0.361 OA
ENDROOT
BRANCH   1   2
ATOM      2  C   UNL     1     -10.603 -13.582   2.663  0.00  0.00    +0.256 C 
BRANCH   2   4
ATOM      3  N   UNL     1     -12.060 -11.890   1.703  0.00  0.00    -0.284 N 
ATOM      4  C   UNL     1     -11.511 -13.152   1.521  0.00  0.00    +0.243 C 
ATOM      5  O   UNL     1     -11.651 -13.884   0.543  0.00  0.00    -0.273 OA
ATOM      6  H   UNL     1     -11.799 -11.402   2.556  0.00  0.00    +0.155 HD
BRANCH   3  11
ATOM      7  C   UNL     1     -14.624 -11.315  -0.916  0.00  0.00    +0.002 A 
ATOM      8  C   UNL     1     -14.785  -9.931  -0.854  0.00  0.00    +0.009 A 
ATOM      9  C   UNL     1     -14.008  -9.172   0.023  0.00  0.00    -0.013 A 
ATOM     10  C   UNL     1     -13.066  -9.821   0.827  0.00  0.00    +0.032 A 
ATOM     11  C   UNL     1     -12.928 -11.213   0.819  0.00  0.00    +0.034 A 
ATOM     12  C   UNL     1     -13.703 -11.956  -0.078  0.00  0.00    +0.023 A 
BRANCH   9  13
ATOM     13  C   UNL     1     -14.200  -7.743   0.179  0.00  0.00    +0.020 A 
ATOM     14  C   UNL     1     -15.360  -7.143   0.620  0.00  0.00    +0.203 A 
ATOM     15  O   UNL     1     -15.208  -5.793   0.687  0.00  0.00    -0.470 OA
ATOM     16  C   UNL     1     -13.942  -5.519   0.284  0.00  0.00    +0.195 A 
ATOM     17  C   UNL     1     -13.282  -6.678  -0.053  0.00  0.00    +0.049 A 
ENDBRANCH   9  13
ENDBRANCH   3  11
ENDBRANCH   2   4
ENDBRANCH   1   2
BRANCH   1  18
ATOM     18  C   UNL     1      -8.396 -14.403   2.455  0.00  0.00    +0.256 C 
BRANCH  18  19
ATOM     19  C   UNL     1      -7.886 -14.870   1.100  0.00  0.00    +0.243 C 
ATOM     20  O   UNL     1      -8.636 -15.369   0.260  0.00  0.00    -0.273 OA
ATOM     21  N   UNL     1      -6.536 -14.595   0.904  0.00  0.00    -0.283 N 
ATOM     22  H   UNL     1      -5.967 -14.735   1.739  0.00  0.00    +0.155 HD
BRANCH  21  23
ATOM     23  C   UNL     1      -5.924 -14.824  -0.350  0.00  0.00    +0.048 A 
ATOM     24  C   UNL     1      -5.264 -16.029  -0.642  0.00  0.00    +0.081 A 
ATOM     25  C   UNL     1      -4.721 -16.229  -1.920  0.00  0.00    +0.036 A 
ATOM     26  C   UNL     1      -4.775 -15.210  -2.868  0.00  0.00    +0.042 A 
ATOM     27  C   UNL     1      -5.380 -13.994  -2.568  0.00  0.00    +0.022 A 
ATOM     28  C   UNL     1      -5.962 -13.806  -1.316  0.00  0.00    +0.025 A 
ATOM     29 CL   UNL     1      -4.098 -15.469  -4.427  0.00  0.00    -0.084 Cl
BRANCH  24  30
ATOM     30  C   UNL     1      -5.248 -17.141   0.345  0.00  0.00    +0.339 C 
ATOM     31  O   UNL     1      -5.961 -18.125   0.238  0.00  0.00    -0.245 OA
BRANCH  30  32
ATOM     32  O   UNL     1      -4.435 -16.935   1.396  0.00  0.00    -0.477 OA
ATOM     33  H   UNL     1      -3.478 -17.020   1.230  0.00  0.00    +0.295 HD
ENDBRANCH  30  32
ENDBRANCH  24  30
ENDBRANCH  21  23
ENDBRANCH  18  19
ENDBRANCH   1  18
TORSDOF 9
ENDMDL
MODEL 4
REMARK VINA RESULT:    -7.685      1.334      2.190
REMARK INTER + INTRA:         -12.905
REMARK INTER:                 -11.571
REMARK INTRA:                  -1.334
REMARK UNBOUND:                -1.402
REMARK  Name = 
REMARK  9 active torsions:
REMARK  status: ('A' for Active; 'I' for Inactive)
REMARK    1  A    between atoms: C_3  and  C_26
REMARK    2  A    between atoms: C_5  and  N_7
REMARK    3  A    between atoms: C_8  and  C_10
REMARK    4  A    between atoms: C_10  and  O_11
REMARK    5  A    between atoms: O_11  and  C_12
REMARK    6  A    between atoms: C_12  and  C_13
REMARK    7  A    between atoms: N_15  and  C_16
REMARK    8  A    between atoms: C_17  and  C_23
REMARK    9  A    between atoms: C_23  and  O_25
REMARK                            x       y       z     vdW  Elec       q    Type
REMARK                         _______ _______ _______ _____ _____    ______ ____
ROOT
ATOM      1  O   UNL     1     -10.724 -13.353   4.954  0.00  0.00    -0.361 OA
ENDROOT
BRANCH   1   2
ATOM      2  C   UNL     1      -9.599 -12.968   4.155  0.00  0.00    +0.256 C 
BRANCH   2   4
ATOM      3  N   UNL     1     -11.493 -12.212   2.831  0.00  0.00    -0.284 N 
ATOM      4  C   UNL     1     -10.110 -12.336   2.869  0.00  0.00    +0.243 C 
ATOM      5  O   UNL     1      -9.311 -11.951   2.017  0.00  0.00    -0.273 OA
ATOM      6  H   UNL     1     -11.999 -12.545   3.648  0.00  0.00    +0.155 HD
BRANCH   3  11
ATOM      7  C   UNL     1     -13.700 -11.995  -0.142  0.00  0.00    +0.002 A 
ATOM      8  C   UNL     1     -13.928 -10.622  -0.225  0.00  0.00    +0.009 A 
ATOM      9  C   UNL     1     -13.311  -9.752   0.676  0.00  0.00    -0.013 A 
ATOM     10  C   UNL     1     -12.459 -10.280   1.651  0.00  0.00    +0.032 A 
ATOM     11  C   UNL     1     -12.261 -11.658   1.784  0.00  0.00    +0.034 A 
ATOM     12  C   UNL     1     -12.874 -12.514   0.862  0.00  0.00    +0.023 A 
BRANCH   9  13
ATOM     13  C   UNL     1     -13.583  -8.328   0.679  0.00  0.00    +0.020 A 
ATOM     14  C   UNL     1     -13.037  -7.418   1.559  0.00  0.00    +0.203 A 
ATOM     15  O   UNL     1     -13.467  -6.158   1.279  0.00  0.00    -0.470 OA
ATOM     16  C   UNL     1     -14.299  -6.255   0.212  0.00  0.00    +0.195 A 
ATOM     17  C   UNL     1     -14.419  -7.566  -0.189  0.00  0.00    +0.049 A 
ENDBRANCH   9  13
ENDBRANCH   3  11
ENDBRANCH   2   4
ENDBRANCH   1   2
BRANCH   1  18
ATOM     18  C   UNL     1     -10.353 -14.269   5.978  0.00  0.00    +0.256 C 
BRANCH  18  19
ATOM     19  C   UNL     1     -11.240 -15.504   5.947  0.00  0.00    +0.243 C 
ATOM     20  O   UNL     1     -10.926 -16.545   6.525  0.00  0.00    -0.273 OA
ATOM     21  N   UNL     1     -12.444 -15.291   5.283  0.00  0.00    -0.283 N 
ATOM     22  H   UNL     1     -12.352 -14.708   4.451  0.00  0.00    +0.155 HD
BRANCH  21  23
ATOM     23  C   UNL     1     -13.456 -16.279   5.281  0.00  0.00    +0.048 A 
ATOM     24  C   UNL     1     -13.700 -17.084   4.156  0.00  0.00    +0.081 A 
ATOM     25  C   UNL     1     -14.679 -18.088   4.223  0.00  0.00    +0.036 A 
ATOM     26  C   UNL     1     -15.449 -18.235   5.375  0.00  0.00    +0.042 A 
ATOM     27  C   UNL     1     -15.249 -17.406   6.472  0.00  0.00    +0.022 A 
ATOM     28  C   UNL     1     -14.247 -16.437   6.429  0.00  0.00    +0.025 A 
ATOM     29 CL   UNL     1     -16.650 -19.465   5.437  0.00  0.00    -0.084 Cl
BRANCH  24  30
ATOM     30  C   UNL     1     -12.848 -16.969   2.944  0.00  0.00    +0.339 C 
ATOM     31  O   UNL     1     -12.006 -17.802   2.652  0.00  0.00    -0.245 OA
BRANCH  30  32
ATOM     32  O   UNL     1     -13.038 -15.839   2.240  0.00  0.00    -0.477 OA
ATOM     33  H   UNL     1     -12.343 -15.601   1.600  0.00  0.00    +0.295 HD
ENDBRANCH  30  32
ENDBRANCH  24  30
ENDBRANCH  21  23
ENDBRANCH  18  19
ENDBRANCH   1  18
TORSDOF 9
ENDMDL
MODEL 5
REMARK VINA RESULT:    -7.456      5.350      7.393
REMARK INTER + INTRA:         -12.563
REMARK INTER:                 -11.882
REMARK INTRA:                  -0.681
REMARK UNBOUND:                -1.402
REMARK  Name = 
REMARK  9 active torsions:
REMARK  status: ('A' for Active; 'I' for Inactive)
REMARK    1  A    between atoms: C_3  and  C_26
REMARK    2  A    between atoms: C_5  and  N_7
REMARK    3  A    between atoms: C_8  and  C_10
REMARK    4  A    between atoms: C_10  and  O_11
REMARK    5  A    between atoms: O_11  and  C_12
REMARK    6  A    between atoms: C_12  and  C_13
REMARK    7  A    between atoms: N_15  and  C_16
REMARK    8  A    between atoms: C_17  and  C_23
REMARK    9  A    between atoms: C_23  and  O_25
REMARK                            x       y       z     vdW  Elec       q    Type
REMARK                         _______ _______ _______ _____ _____    ______ ____
ROOT
ATOM      1  O   UNL     1      -8.656 -12.653   2.459  0.00  0.00    -0.361 OA
ENDROOT
BRANCH   1   2
ATOM      2  C   UNL     1      -9.881 -12.425   3.167  0.00  0.00    +0.256 C 
BRANCH   2   4
ATOM      3  N   UNL     1     -11.517 -10.921   2.183  0.00  0.00    -0.284 N 
ATOM      4  C   UNL     1     -10.995 -12.208   2.154  0.00  0.00    +0.243 C 
ATOM      5  O   UNL     1     -11.308 -13.115   1.385  0.00  0.00    -0.273 OA
ATOM      6  H   UNL     1     -11.106 -10.281   2.857  0.00  0.00    +0.155 HD
BRANCH   3  11
ATOM      7  C   UNL     1     -13.840  -8.507   0.590  0.00  0.00    +0.002 A 
ATOM      8  C   UNL     1     -14.476  -9.310  -0.357  0.00  0.00    +0.009 A 
ATOM      9  C   UNL     1     -14.174 -10.670  -0.441  0.00  0.00    -0.013 A 
ATOM     10  C   UNL     1     -13.234 -11.210   0.442  0.00  0.00    +0.032 A 
ATOM     11  C   UNL     1     -12.546 -10.411   1.361  0.00  0.00    +0.034 A 
ATOM     12  C   UNL     1     -12.874  -9.053   1.443  0.00  0.00    +0.023 A 
BRANCH   9  13
ATOM     13  C   UNL     1     -14.748 -11.524  -1.463  0.00  0.00    +0.020 A 
ATOM     14  C   UNL     1     -14.557 -12.886  -1.558  0.00  0.00    +0.203 A 
ATOM     15  O   UNL     1     -15.256 -13.399  -2.606  0.00  0.00    -0.470 OA
ATOM     16  C   UNL     1     -15.902 -12.361  -3.194  0.00  0.00    +0.195 A 
ATOM     17  C   UNL     1     -15.615 -11.183  -2.542  0.00  0.00    +0.049 A 
ENDBRANCH   9  13
ENDBRANCH   3  11
ENDBRANCH   2   4
ENDBRANCH   1   2
BRANCH   1  18
ATOM     18  C   UNL     1      -8.134 -13.951   2.714  0.00  0.00    +0.256 C 
BRANCH  18  19
ATOM     19  C   UNL     1      -7.615 -14.588   1.433  0.00  0.00    +0.243 C 
ATOM     20  O   UNL     1      -8.377 -15.032   0.573  0.00  0.00    -0.273 OA
ATOM     21  N   UNL     1      -6.230 -14.527   1.320  0.00  0.00    -0.283 N 
ATOM     22  H   UNL     1      -5.742 -14.686   2.201  0.00  0.00    +0.155 HD
BRANCH  21  23
ATOM     23  C   UNL     1      -5.581 -14.936   0.131  0.00  0.00    +0.048 A 
ATOM     24  C   UNL     1      -5.173 -16.265  -0.069  0.00  0.00    +0.081 A 
ATOM     25  C   UNL     1      -4.583 -16.632  -1.289  0.00  0.00    +0.036 A 
ATOM     26  C   UNL     1      -4.340 -15.667  -2.264  0.00  0.00    +0.042 A 
ATOM     27  C   UNL     1      -4.693 -14.339  -2.050  0.00  0.00    +0.022 A 
ATOM     28  C   UNL     1      -5.321 -13.977  -0.860  0.00  0.00    +0.025 A 
ATOM     29 CL   UNL     1      -3.610 -16.131  -3.749  0.00  0.00    -0.084 Cl
BRANCH  24  30
ATOM     30  C   UNL     1      -5.476 -17.310   0.944  0.00  0.00    +0.339 C 
ATOM     31  O   UNL     1      -6.234 -18.240   0.722  0.00  0.00    -0.245 OA
BRANCH  30  32
ATOM     32  O   UNL     1      -4.899 -17.103   2.140  0.00  0.00    -0.477 OA
ATOM     33  H   UNL     1      -4.794 -16.176   2.419  0.00  0.00    +0.295 HD
ENDBRANCH  30  32
ENDBRANCH  24  30
ENDBRANCH  21  23
ENDBRANCH  18  19
ENDBRANCH   1  18
TORSDOF 9
ENDMDL
MODEL 6
REMARK VINA RESULT:    -7.441      4.658      6.593
REMARK INTER + INTRA:         -12.541
REMARK INTER:                 -11.943
REMARK INTRA:                  -0.598
REMARK UNBOUND:                -1.402
REMARK  Name = 
REMARK  9 active torsions:
REMARK  status: ('A' for Active; 'I' for Inactive)
REMARK    1  A    between atoms: C_3  and  C_26
REMARK    2  A    between atoms: C_5  and  N_7
REMARK    3  A    between atoms: C_8  and  C_10
REMARK    4  A    between atoms: C_10  and  O_11
REMARK    5  A    between atoms: O_11  and  C_12
REMARK    6  A    between atoms: C_12  and  C_13
REMARK    7  A    between atoms: N_15  and  C_16
REMARK    8  A    between atoms: C_17  and  C_23
REMARK    9  A    between atoms: C_23  and  O_25
REMARK                            x       y       z     vdW  Elec       q    Type
REMARK                         _______ _______ _______ _____ _____    ______ ____
ROOT
ATOM      1  O   UNL     1      -9.169 -13.275   2.175  0.00  0.00    -0.361 OA
ENDROOT
BRANCH   1   2
ATOM      2  C   UNL     1     -10.508 -13.623   2.549  0.00  0.00    +0.256 C 
BRANCH   2   4
ATOM      3  N   UNL     1     -12.005 -11.933   1.649  0.00  0.00    -0.284 N 
ATOM      4  C   UNL     1     -11.452 -13.189   1.438  0.00  0.00    +0.243 C 
ATOM      5  O   UNL     1     -11.615 -13.912   0.457  0.00  0.00    -0.273 OA
ATOM      6  H   UNL     1     -11.723 -11.451   2.498  0.00  0.00    +0.155 HD
BRANCH   3  11
ATOM      7  C   UNL     1     -14.665 -11.352  -0.871  0.00  0.00    +0.002 A 
ATOM      8  C   UNL     1     -14.818  -9.968  -0.807  0.00  0.00    +0.009 A 
ATOM      9  C   UNL     1     -14.004  -9.211   0.038  0.00  0.00    -0.013 A 
ATOM     10  C   UNL     1     -13.035  -9.861   0.807  0.00  0.00    +0.032 A 
ATOM     11  C   UNL     1     -12.903 -11.254   0.797  0.00  0.00    +0.034 A 
ATOM     12  C   UNL     1     -13.715 -11.996  -0.068  0.00  0.00    +0.023 A 
BRANCH   9  13
ATOM     13  C   UNL     1     -14.184  -7.781   0.199  0.00  0.00    +0.020 A 
ATOM     14  C   UNL     1     -15.390  -7.154   0.430  0.00  0.00    +0.203 A 
ATOM     15  O   UNL     1     -15.218  -5.812   0.566  0.00  0.00    -0.470 OA
ATOM     16  C   UNL     1     -13.891  -5.569   0.418  0.00  0.00    +0.195 A 
ATOM     17  C   UNL     1     -13.211  -6.740   0.176  0.00  0.00    +0.049 A 
ENDBRANCH   9  13
ENDBRANCH   3  11
ENDBRANCH   2   4
ENDBRANCH   1   2
BRANCH   1  18
ATOM     18  C   UNL     1      -8.207 -14.062   2.868  0.00  0.00    +0.256 C 
BRANCH  18  19
ATOM     19  C   UNL     1      -7.377 -14.884   1.893  0.00  0.00    +0.243 C 
ATOM     20  O   UNL     1      -6.365 -15.489   2.251  0.00  0.00    -0.273 OA
ATOM     21  N   UNL     1      -7.930 -14.935   0.618  0.00  0.00    -0.283 N 
ATOM     22  H   UNL     1      -8.342 -14.052   0.317  0.00  0.00    +0.155 HD
BRANCH  21  23
ATOM     23  C   UNL     1      -7.377 -15.772  -0.380  0.00  0.00    +0.048 A 
ATOM     24  C   UNL     1      -6.340 -15.333  -1.220  0.00  0.00    +0.081 A 
ATOM     25  C   UNL     1      -5.787 -16.220  -2.157  0.00  0.00    +0.036 A 
ATOM     26  C   UNL     1      -6.313 -17.502  -2.299  0.00  0.00    +0.042 A 
ATOM     27  C   UNL     1      -7.376 -17.924  -1.507  0.00  0.00    +0.022 A 
ATOM     28  C   UNL     1      -7.899 -17.064  -0.543  0.00  0.00    +0.025 A 
ATOM     29 CL   UNL     1      -5.630 -18.573  -3.458  0.00  0.00    -0.084 Cl
BRANCH  24  30
ATOM     30  C   UNL     1      -5.738 -13.986  -1.039  0.00  0.00    +0.339 C 
ATOM     31  O   UNL     1      -4.711 -13.805  -0.407  0.00  0.00    -0.245 OA
BRANCH  30  32
ATOM     32  O   UNL     1      -6.458 -12.983  -1.572  0.00  0.00    -0.477 OA
ATOM     33  H   UNL     1      -6.408 -12.122  -1.119  0.00  0.00    +0.295 HD
ENDBRANCH  30  32
ENDBRANCH  24  30
ENDBRANCH  21  23
ENDBRANCH  18  19
ENDBRANCH   1  18
TORSDOF 9
ENDMDL
MODEL 7
REMARK VINA RESULT:    -7.375      4.926      6.918
REMARK INTER + INTRA:         -12.442
REMARK INTER:                 -11.766
REMARK INTRA:                  -0.676
REMARK UNBOUND:                -1.402
REMARK  Name = 
REMARK  9 active torsions:
REMARK  status: ('A' for Active; 'I' for Inactive)
REMARK    1  A    between atoms: C_3  and  C_26
REMARK    2  A    between atoms: C_5  and  N_7
REMARK    3  A    between atoms: C_8  and  C_10
REMARK    4  A    between atoms: C_10  and  O_11
REMARK    5  A    between atoms: O_11  and  C_12
REMARK    6  A    between atoms: C_12  and  C_13
REMARK    7  A    between atoms: N_15  and  C_16
REMARK    8  A    between atoms: C_17  and  C_23
REMARK    9  A    between atoms: C_23  and  O_25
REMARK                            x       y       z     vdW  Elec       q    Type
REMARK                         _______ _______ _______ _____ _____    ______ ____
ROOT
ATOM      1  O   UNL     1      -8.652 -12.636   2.638  0.00  0.00    -0.361 OA
ENDROOT
BRANCH   1   2
ATOM      2  C   UNL     1      -9.868 -12.236   3.281  0.00  0.00    +0.256 C 
BRANCH   2   4
ATOM      3  N   UNL     1     -11.537 -10.804   2.246  0.00  0.00    -0.284 N 
ATOM      4  C   UNL     1     -10.944 -12.059   2.220  0.00  0.00    +0.243 C 
ATOM      5  O   UNL     1     -11.171 -12.967   1.422  0.00  0.00    -0.273 OA
ATOM      6  H   UNL     1     -11.194 -10.155   2.949  0.00  0.00    +0.155 HD
BRANCH   3  11
ATOM      7  C   UNL     1     -13.822  -8.468   0.488  0.00  0.00    +0.002 A 
ATOM      8  C   UNL     1     -14.456  -9.319  -0.415  0.00  0.00    +0.009 A 
ATOM      9  C   UNL     1     -14.167 -10.685  -0.414  0.00  0.00    -0.013 A 
ATOM     10  C   UNL     1     -13.241 -11.180   0.508  0.00  0.00    +0.032 A 
ATOM     11  C   UNL     1     -12.554 -10.334   1.385  0.00  0.00    +0.034 A 
ATOM     12  C   UNL     1     -12.869  -8.971   1.383  0.00  0.00    +0.023 A 
BRANCH   9  13
ATOM     13  C   UNL     1     -14.740 -11.593  -1.389  0.00  0.00    +0.020 A 
ATOM     14  C   UNL     1     -14.511 -12.952  -1.438  0.00  0.00    +0.203 A 
ATOM     15  O   UNL     1     -15.219 -13.524  -2.449  0.00  0.00    -0.470 OA
ATOM     16  C   UNL     1     -15.909 -12.527  -3.059  0.00  0.00    +0.195 A 
ATOM     17  C   UNL     1     -15.642 -11.318  -2.459  0.00  0.00    +0.049 A 
ENDBRANCH   9  13
ENDBRANCH   3  11
ENDBRANCH   2   4
ENDBRANCH   1   2
BRANCH   1  18
ATOM     18  C   UNL     1      -8.088 -13.790   3.249  0.00  0.00    +0.256 C 
BRANCH  18  19
ATOM     19  C   UNL     1      -7.323 -14.623   2.232  0.00  0.00    +0.243 C 
ATOM     20  O   UNL     1      -6.260 -15.179   2.514  0.00  0.00    -0.273 OA
ATOM     21  N   UNL     1      -7.991 -14.744   1.018  0.00  0.00    -0.283 N 
ATOM     22  H   UNL     1      -8.462 -13.888   0.725  0.00  0.00    +0.155 HD
BRANCH  21  23
ATOM     23  C   UNL     1      -7.503 -15.602   0.004  0.00  0.00    +0.048 A 
ATOM     24  C   UNL     1      -6.543 -15.173  -0.928  0.00  0.00    +0.081 A 
ATOM     25  C   UNL     1      -6.050 -16.078  -1.880  0.00  0.00    +0.036 A 
ATOM     26  C   UNL     1      -6.563 -17.372  -1.943  0.00  0.00    +0.042 A 
ATOM     27  C   UNL     1      -7.552 -17.786  -1.057  0.00  0.00    +0.022 A 
ATOM     28  C   UNL     1      -8.013 -16.906  -0.080  0.00  0.00    +0.025 A 
ATOM     29 CL   UNL     1      -5.954 -18.467  -3.121  0.00  0.00    -0.084 Cl
BRANCH  24  30
ATOM     30  C   UNL     1      -5.953 -13.811  -0.834  0.00  0.00    +0.339 C 
ATOM     31  O   UNL     1      -6.524 -12.818  -1.252  0.00  0.00    -0.245 OA
BRANCH  30  32
ATOM     32  O   UNL     1      -4.714 -13.782  -0.314  0.00  0.00    -0.477 OA
ATOM     33  H   UNL     1      -4.054 -13.244  -0.789  0.00  0.00    +0.295 HD
ENDBRANCH  30  32
ENDBRANCH  24  30
ENDBRANCH  21  23
ENDBRANCH  18  19
ENDBRANCH   1  18
TORSDOF 9
ENDMDL
MODEL 8
REMARK VINA RESULT:    -7.337      3.377      5.110
REMARK INTER + INTRA:         -12.384
REMARK INTER:                 -10.863
REMARK INTRA:                  -1.521
REMARK UNBOUND:                -1.402
REMARK  Name = 
REMARK  9 active torsions:
REMARK  status: ('A' for Active; 'I' for Inactive)
REMARK    1  A    between atoms: C_3  and  C_26
REMARK    2  A    between atoms: C_5  and  N_7
REMARK    3  A    between atoms: C_8  and  C_10
REMARK    4  A    between atoms: C_10  and  O_11
REMARK    5  A    between atoms: O_11  and  C_12
REMARK    6  A    between atoms: C_12  and  C_13
REMARK    7  A    between atoms: N_15  and  C_16
REMARK    8  A    between atoms: C_17  and  C_23
REMARK    9  A    between atoms: C_23  and  O_25
REMARK                            x       y       z     vdW  Elec       q    Type
REMARK                         _______ _______ _______ _____ _____    ______ ____
ROOT
ATOM      1  O   UNL     1     -14.794 -17.132   0.938  0.00  0.00    -0.361 OA
ENDROOT
BRANCH   1   2
ATOM      2  C   UNL     1     -14.449 -16.968  -0.442  0.00  0.00    +0.256 C 
BRANCH   2   4
ATOM      3  N   UNL     1     -14.140 -14.603  -0.910  0.00  0.00    -0.284 N 
ATOM      4  C   UNL     1     -15.042 -15.658  -0.940  0.00  0.00    +0.243 C 
ATOM      5  O   UNL     1     -16.197 -15.631  -1.361  0.00  0.00    -0.273 OA
ATOM      6  H   UNL     1     -13.206 -14.815  -0.571  0.00  0.00    +0.155 HD
BRANCH   3  11
ATOM      7  C   UNL     1     -15.380 -11.735  -2.910  0.00  0.00    +0.002 A 
ATOM      8  C   UNL     1     -15.039 -10.655  -2.097  0.00  0.00    +0.009 A 
ATOM      9  C   UNL     1     -14.350 -10.866  -0.901  0.00  0.00    -0.013 A 
ATOM     10  C   UNL     1     -14.005 -12.172  -0.541  0.00  0.00    +0.032 A 
ATOM     11  C   UNL     1     -14.386 -13.273  -1.316  0.00  0.00    +0.034 A 
ATOM     12  C   UNL     1     -15.060 -13.041  -2.520  0.00  0.00    +0.023 A 
BRANCH   9  13
ATOM     13  C   UNL     1     -14.049  -9.783   0.014  0.00  0.00    +0.020 A 
ATOM     14  C   UNL     1     -13.082  -9.821   0.996  0.00  0.00    +0.203 A 
ATOM     15  O   UNL     1     -13.025  -8.636   1.663  0.00  0.00    -0.470 OA
ATOM     16  C   UNL     1     -13.964  -7.828   1.109  0.00  0.00    +0.195 A 
ATOM     17  C   UNL     1     -14.632  -8.486   0.102  0.00  0.00    +0.049 A 
ENDBRANCH   9  13
ENDBRANCH   3  11
ENDBRANCH   2   4
ENDBRANCH   1   2
BRANCH   1  18
ATOM     18  C   UNL     1     -13.787 -17.837   1.653  0.00  0.00    +0.256 C 
BRANCH  18  19
ATOM     19  C   UNL     1     -12.631 -16.915   2.012  0.00  0.00    +0.243 C 
ATOM     20  O   UNL     1     -11.481 -17.134   1.627  0.00  0.00    -0.273 OA
ATOM     21  N   UNL     1     -13.035 -15.792   2.727  0.00  0.00    -0.283 N 
ATOM     22  H   UNL     1     -13.763 -15.988   3.414  0.00  0.00    +0.155 HD
BRANCH  21  23
ATOM     23  C   UNL     1     -12.122 -14.752   3.020  0.00  0.00    +0.048 A 
ATOM     24  C   UNL     1     -11.532 -14.622   4.288  0.00  0.00    +0.081 A 
ATOM     25  C   UNL     1     -10.590 -13.605   4.512  0.00  0.00    +0.036 A 
ATOM     26  C   UNL     1     -10.298 -12.690   3.502  0.00  0.00    +0.042 A 
ATOM     27  C   UNL     1     -10.919 -12.782   2.261  0.00  0.00    +0.022 A 
ATOM     28  C   UNL     1     -11.821 -13.817   2.018  0.00  0.00    +0.025 A 
ATOM     29 CL   UNL     1      -9.148 -11.447   3.795  0.00  0.00    -0.084 Cl
BRANCH  24  30
ATOM     30  C   UNL     1     -11.798 -15.624   5.353  0.00  0.00    +0.339 C 
ATOM     31  O   UNL     1     -12.443 -15.362   6.355  0.00  0.00    -0.245 OA
BRANCH  30  32
ATOM     32  O   UNL     1     -11.211 -16.816   5.148  0.00  0.00    -0.477 OA
ATOM     33  H   UNL     1     -10.343 -16.953   5.568  0.00  0.00    +0.295 HD
ENDBRANCH  30  32
ENDBRANCH  24  30
ENDBRANCH  21  23
ENDBRANCH  18  19
ENDBRANCH   1  18
TORSDOF 9
ENDMDL
MODEL 9
REMARK VINA RESULT:    -7.115      2.118      3.343
REMARK INTER + INTRA:         -12.053
REMARK INTER:                 -10.794
REMARK INTRA:                  -1.259
REMARK UNBOUND:                -1.402
REMARK  Name = 
REMARK  9 active torsions:
REMARK  status: ('A' for Active; 'I' for Inactive)
REMARK    1  A    between atoms: C_3  and  C_26
REMARK    2  A    between atoms: C_5  and  N_7
REMARK    3  A    between atoms: C_8  and  C_10
REMARK    4  A    between atoms: C_10  and  O_11
REMARK    5  A    between atoms: O_11  and  C_12
REMARK    6  A    between atoms: C_12  and  C_13
REMARK    7  A    between atoms: N_15  and  C_16
REMARK    8  A    between atoms: C_17  and  C_23
REMARK    9  A    between atoms: C_23  and  O_25
REMARK                            x       y       z     vdW  Elec       q    Type
REMARK                         _______ _______ _______ _____ _____    ______ ____
ROOT
ATOM      1  O   UNL     1     -10.739 -13.823   4.808  0.00  0.00    -0.361 OA
ENDROOT
BRANCH   1   2
ATOM      2  C   UNL     1      -9.580 -13.313   4.137  0.00  0.00    +0.256 C 
BRANCH   2   4
ATOM      3  N   UNL     1     -11.362 -11.991   3.144  0.00  0.00    -0.284 N 
ATOM      4  C   UNL     1     -10.033 -12.377   3.027  0.00  0.00    +0.243 C 
ATOM      5  O   UNL     1      -9.228 -12.002   2.176  0.00  0.00    -0.273 OA
ATOM      6  H   UNL     1     -11.872 -12.363   3.940  0.00  0.00    +0.155 HD
BRANCH   3  11
ATOM      7  C   UNL     1     -12.537  -8.861   1.535  0.00  0.00    +0.002 A 
ATOM      8  C   UNL     1     -13.321  -9.356   0.494  0.00  0.00    +0.009 A 
ATOM      9  C   UNL     1     -13.507 -10.732   0.348  0.00  0.00    -0.013 A 
ATOM     10  C   UNL     1     -12.901 -11.598   1.264  0.00  0.00    +0.032 A 
ATOM     11  C   UNL     1     -12.067 -11.124   2.281  0.00  0.00    +0.034 A 
ATOM     12  C   UNL     1     -11.906  -9.741   2.424  0.00  0.00    +0.023 A 
BRANCH   9  13
ATOM     13  C   UNL     1     -14.245 -11.294  -0.766  0.00  0.00    +0.020 A 
ATOM     14  C   UNL     1     -14.268 -12.629  -1.109  0.00  0.00    +0.203 A 
ATOM     15  O   UNL     1     -15.078 -12.838  -2.182  0.00  0.00    -0.470 OA
ATOM     16  C   UNL     1     -15.581 -11.628  -2.536  0.00  0.00    +0.195 A 
ATOM     17  C   UNL     1     -15.092 -10.643  -1.710  0.00  0.00    +0.049 A 
ENDBRANCH   9  13
ENDBRANCH   3  11
ENDBRANCH   2   4
ENDBRANCH   1   2
BRANCH   1  18
ATOM     18  C   UNL     1     -10.388 -14.682   5.886  0.00  0.00    +0.256 C 
BRANCH  18  19
ATOM     19  C   UNL     1     -11.364 -15.844   5.993  0.00  0.00    +0.243 C 
ATOM     20  O   UNL     1     -11.089 -16.868   6.621  0.00  0.00    -0.273 OA
ATOM     21  N   UNL     1     -12.590 -15.580   5.391  0.00  0.00    -0.283 N 
ATOM     22  H   UNL     1     -12.510 -15.060   4.517  0.00  0.00    +0.155 HD
BRANCH  21  23
ATOM     23  C   UNL     1     -13.670 -16.484   5.517  0.00  0.00    +0.048 A 
ATOM     24  C   UNL     1     -14.088 -17.290   4.445  0.00  0.00    +0.081 A 
ATOM     25  C   UNL     1     -15.129 -18.212   4.637  0.00  0.00    +0.036 A 
ATOM     26  C   UNL     1     -15.787 -18.275   5.864  0.00  0.00    +0.042 A 
ATOM     27  C   UNL     1     -15.413 -17.442   6.912  0.00  0.00    +0.022 A 
ATOM     28  C   UNL     1     -14.350 -16.557   6.742  0.00  0.00    +0.025 A 
ATOM     29 CL   UNL     1     -17.066 -19.404   6.080  0.00  0.00    -0.084 Cl
BRANCH  24  30
ATOM     30  C   UNL     1     -13.357 -17.267   3.151  0.00  0.00    +0.339 C 
ATOM     31  O   UNL     1     -12.192 -17.613   3.048  0.00  0.00    -0.245 OA
BRANCH  30  32
ATOM     32  O   UNL     1     -14.068 -16.769   2.124  0.00  0.00    -0.477 OA
ATOM     33  H   UNL     1     -13.565 -16.498   1.335  0.00  0.00    +0.295 HD
ENDBRANCH  30  32
ENDBRANCH  24  30
ENDBRANCH  21  23
ENDBRANCH  18  19
ENDBRANCH   1  18
TORSDOF 9
ENDMDL
MODEL 10
REMARK VINA RESULT:    -7.007      4.609      7.193
REMARK INTER + INTRA:         -11.891
REMARK INTER:                 -10.334
REMARK INTRA:                  -1.558
REMARK UNBOUND:                -1.402
REMARK  Name = 
REMARK  9 active torsions:
REMARK  status: ('A' for Active; 'I' for Inactive)
REMARK    1  A    between atoms: C_3  and  C_26
REMARK    2  A    between atoms: C_5  and  N_7
REMARK    3  A    between atoms: C_8  and  C_10
REMARK    4  A    between atoms: C_10  and  O_11
REMARK    5  A    between atoms: O_11  and  C_12
REMARK    6  A    between atoms: C_12  and  C_13
REMARK    7  A    between atoms: N_15  and  C_16
REMARK    8  A    between atoms: C_17  and  C_23
REMARK    9  A    between atoms: C_23  and  O_25
REMARK                            x       y       z     vdW  Elec       q    Type
REMARK                         _______ _______ _______ _____ _____    ______ ____
ROOT
ATOM      1  O   UNL     1     -12.189 -16.992   1.203  0.00  0.00    -0.361 OA
ENDROOT
BRANCH   1   2
ATOM      2  C   UNL     1     -13.592 -16.862   1.464  0.00  0.00    +0.256 C 
BRANCH   2   4
ATOM      3  N   UNL     1     -13.480 -15.249  -0.350  0.00  0.00    -0.284 N 
ATOM      4  C   UNL     1     -14.257 -16.230   0.251  0.00  0.00    +0.243 C 
ATOM      5  O   UNL     1     -15.352 -16.640  -0.129  0.00  0.00    -0.273 OA
ATOM      6  H   UNL     1     -12.574 -15.067   0.073  0.00  0.00    +0.155 HD
BRANCH   3  11
ATOM      7  C   UNL     1     -14.976 -12.596  -2.468  0.00  0.00    +0.002 A 
ATOM      8  C   UNL     1     -14.392 -12.859  -3.706  0.00  0.00    +0.009 A 
ATOM      9  C   UNL     1     -13.534 -13.950  -3.860  0.00  0.00    -0.013 A 
ATOM     10  C   UNL     1     -13.281 -14.772  -2.758  0.00  0.00    +0.032 A 
ATOM     11  C   UNL     1     -13.814 -14.493  -1.495  0.00  0.00    +0.034 A 
ATOM     12  C   UNL     1     -14.685 -13.405  -1.363  0.00  0.00    +0.023 A 
BRANCH   9  13
ATOM     13  C   UNL     1     -12.840 -14.213  -5.106  0.00  0.00    +0.020 A 
ATOM     14  C   UNL     1     -13.320 -15.004  -6.128  0.00  0.00    +0.203 A 
ATOM     15  O   UNL     1     -12.447 -15.024  -7.172  0.00  0.00    -0.470 OA
ATOM     16  C   UNL     1     -11.396 -14.242  -6.820  0.00  0.00    +0.195 A 
ATOM     17  C   UNL     1     -11.577 -13.730  -5.556  0.00  0.00    +0.049 A 
ENDBRANCH   9  13
ENDBRANCH   3  11
ENDBRANCH   2   4
ENDBRANCH   1   2
BRANCH   1  18
ATOM     18  C   UNL     1     -11.405 -16.377   2.218  0.00  0.00    +0.256 C 
BRANCH  18  19
ATOM     19  C   UNL     1     -11.184 -14.903   1.913  0.00  0.00    +0.243 C 
ATOM     20  O   UNL     1     -10.530 -14.531   0.938  0.00  0.00    -0.273 OA
ATOM     21  N   UNL     1     -11.860 -14.061   2.791  0.00  0.00    -0.283 N 
ATOM     22  H   UNL     1     -11.852 -14.388   3.756  0.00  0.00    +0.155 HD
BRANCH  21  23
ATOM     23  C   UNL     1     -11.892 -12.663   2.575  0.00  0.00    +0.048 A 
ATOM     24  C   UNL     1     -11.217 -11.769   3.423  0.00  0.00    +0.081 A 
ATOM     25  C   UNL     1     -11.233 -10.396   3.133  0.00  0.00    +0.036 A 
ATOM     26  C   UNL     1     -11.973  -9.919   2.053  0.00  0.00    +0.042 A 
ATOM     27  C   UNL     1     -12.687 -10.794   1.242  0.00  0.00    +0.022 A 
ATOM     28  C   UNL     1     -12.637 -12.163   1.496  0.00  0.00    +0.025 A 
ATOM     29 CL   UNL     1     -11.989  -8.233   1.718  0.00  0.00    -0.084 Cl
BRANCH  24  30
ATOM     30  C   UNL     1     -10.383 -12.273   4.545  0.00  0.00    +0.339 C 
ATOM     31  O   UNL     1     -10.748 -13.174   5.281  0.00  0.00    -0.245 OA
BRANCH  30  32
ATOM     32  O   UNL     1      -9.229 -11.606   4.718  0.00  0.00    -0.477 OA
ATOM     33  H   UNL     1      -8.436 -12.145   4.894  0.00  0.00    +0.295 HD
ENDBRANCH  30  32
ENDBRANCH  24  30
ENDBRANCH  21  23
ENDBRANCH  18  19
ENDBRANCH   1  18
TORSDOF 9
ENDMDL
