REMARK  Name = 
REMARK  16 active torsions:
REMARK  status: ('A' for Active; 'I' for Inactive)
REMARK    1  A    between atoms: C_1  and  C_2
REMARK    2  A    between atoms: C_2  and  C_3
REMARK    3  A    between atoms: C_2  and  C_4
REMARK    4  A    between atoms: C_2  and  C_5
REMARK    5  A    between atoms: C_12  and  C_14
REMARK    6  A    between atoms: C_21  and  O_24
REMARK    7  A    between atoms: O_24  and  C_25
REMARK    8  A    between atoms: C_25  and  C_26
REMARK    9  A    between atoms: C_26  and  C_27
REMARK   10  A    between atoms: C_27  and  C_28
REMARK   11  A    between atoms: C_28  and  C_29
REMARK   12  A    between atoms: C_29  and  C_30
REMARK   13  A    between atoms: C_30  and  C_31
REMARK   14  A    between atoms: C_30  and  C_34
REMARK   15  A    between atoms: C_31  and  O_33
REMARK   16  A    between atoms: C_34  and  O_36
REMARK                            x       y       z     vdW  Elec       q    Type
REMARK                         _______ _______ _______ _____ _____    ______ ____
ROOT
ATOM      1  C   UNL     1       4.952  -1.122   6.818  0.00  0.00    +0.038 A 
ATOM      2  C   UNL     1       6.185  -1.772   6.947  0.00  0.00    +0.021 A 
ATOM      3  C   UNL     1       6.661  -2.197   8.196  0.00  0.00    -0.017 A 
ATOM      4  C   UNL     1       5.883  -1.965   9.350  0.00  0.00    -0.014 A 
ATOM      5  C   UNL     1       4.650  -1.308   9.223  0.00  0.00    +0.009 A 
ATOM      6  C   UNL     1       4.194  -0.891   7.971  0.00  0.00    +0.014 A 
ATOM      7  C   UNL     1       6.362  -2.402  10.595  0.00  0.00    +0.054 A 
ATOM      8  C   UNL     1       7.603  -3.034  10.707  0.00  0.00    +0.121 A 
ATOM      9  C   UNL     1       8.363  -3.266   9.562  0.00  0.00    +0.046 A 
ATOM     10  C   UNL     1       7.895  -2.849   8.314  0.00  0.00    +0.012 A 
ENDROOT
BRANCH   1  18
ATOM     11  C   UNL     1       3.212   0.339   1.321  0.00  0.00    -0.040 A 
ATOM     12  C   UNL     1       4.260  -0.299   2.024  0.00  0.00    +0.035 A 
ATOM     13  C   UNL     1       4.209  -0.377   3.423  0.00  0.00    +0.110 A 
ATOM     14  C   UNL     1       3.128   0.166   4.087  0.00  0.00    +0.156 A 
ATOM     15  C   UNL     1       2.063   0.798   3.468  0.00  0.00    +0.049 A 
ATOM     16  C   UNL     1       2.129   0.863   2.067  0.00  0.00    +0.008 A 
ATOM     17  O   UNL     1       3.304  -0.047   5.422  0.00  0.00    -0.435 OA
ATOM     18  C   UNL     1       4.497  -0.723   5.491  0.00  0.00    +0.228 A 
ATOM     19  N   UNL     1       5.079  -0.935   4.322  0.00  0.00    -0.209 NA
BRANCH  11  21
ATOM     20  C   UNL     1       2.486  -0.847  -0.752  0.00  0.00    +0.015 C 
ATOM     21  C   UNL     1       3.222   0.398  -0.221  0.00  0.00    -0.013 C 
ATOM     22  C   UNL     1       4.653   0.408  -0.809  0.00  0.00    +0.015 C 
ATOM     23  C   UNL     1       2.520   1.663  -0.766  0.00  0.00    +0.015 C 
ENDBRANCH  11  21
ENDBRANCH   1  18
BRANCH   8  24
ATOM     24  O   UNL     1       7.955  -3.422  11.970  0.00  0.00    -0.492 OA
BRANCH  24  25
ATOM     25  C   UNL     1       9.360  -3.467  12.225  0.00  0.00    +0.229 C 
BRANCH  25  26
ATOM     26  C   UNL     1       9.565  -3.873  13.680  0.00  0.00    +0.041 C 
BRANCH  26  27
ATOM     27  C   UNL     1      11.049  -3.929  14.035  0.00  0.00    +0.003 C 
BRANCH  27  28
ATOM     28  C   UNL     1      11.248  -4.369  15.485  0.00  0.00    +0.001 C 
BRANCH  28  29
ATOM     29  C   UNL     1      12.732  -4.416  15.849  0.00  0.00    +0.026 C 
BRANCH  29  30
ATOM     30  C   UNL     1      12.976  -4.845  17.304  0.00  0.00    +0.205 C 
BRANCH  30  31
ATOM     31  C   UNL     1      14.450  -4.809  17.586  0.00  0.00    +0.319 C 
ATOM     32  O   UNL     1      15.254  -5.485  16.955  0.00  0.00    -0.250 OA
BRANCH  31  33
ATOM     33  O   UNL     1      14.826  -3.959  18.562  0.00  0.00    -0.480 OA
ATOM     34  H   UNL     1      14.101  -3.503  19.035  0.00  0.00    +0.295 HD
ENDBRANCH  31  33
ENDBRANCH  30  31
BRANCH  30  35
ATOM     35  C   UNL     1      12.422  -6.211  17.615  0.00  0.00    +0.319 C 
ATOM     36  O   UNL     1      11.628  -6.400  18.527  0.00  0.00    -0.250 OA
BRANCH  35  37
ATOM     37  O   UNL     1      12.856  -7.215  16.825  0.00  0.00    -0.480 OA
ATOM     38  H   UNL     1      13.589  -6.978  16.218  0.00  0.00    +0.295 HD
ENDBRANCH  35  37
ENDBRANCH  30  35
ENDBRANCH  29  30
ENDBRANCH  28  29
ENDBRANCH  27  28
ENDBRANCH  26  27
ENDBRANCH  25  26
ENDBRANCH  24  25
ENDBRANCH   8  24
TORSDOF 13
