REMARK  Name = 
REMARK  9 active torsions:
REMARK  status: ('A' for Active; 'I' for Inactive)
REMARK    1  A    between atoms: C_3  and  C_26
REMARK    2  A    between atoms: C_5  and  N_7
REMARK    3  A    between atoms: C_8  and  C_10
REMARK    4  A    between atoms: C_10  and  O_11
REMARK    5  A    between atoms: O_11  and  C_12
REMARK    6  A    between atoms: C_12  and  C_13
REMARK    7  A    between atoms: N_15  and  C_16
REMARK    8  A    between atoms: C_17  and  C_23
REMARK    9  A    between atoms: C_23  and  O_25
REMARK                            x       y       z     vdW  Elec       q    Type
REMARK                         _______ _______ _______ _____ _____    ______ ____
ROOT
ATOM      1  O   UNL     1      -4.441   4.250   0.743  0.00  0.00    -0.361 OA
ENDROOT
BRANCH   1   2
ATOM      2  C   UNL     1      -3.009   4.211   0.767  0.00  0.00    +0.256 C 
BRANCH   2   4
ATOM      3  N   UNL     1      -3.042   2.239  -0.653  0.00  0.00    -0.284 N 
ATOM      4  C   UNL     1      -2.557   2.778   0.531  0.00  0.00    +0.243 C 
ATOM      5  O   UNL     1      -1.794   2.238   1.330  0.00  0.00    -0.273 OA
ATOM      6  H   UNL     1      -3.628   2.846  -1.220  0.00  0.00    +0.155 HD
BRANCH   3  11
ATOM      7  C   UNL     1      -3.017  -0.671  -2.954  0.00  0.00    +0.002 A 
ATOM      8  C   UNL     1      -2.194  -1.565  -2.270  0.00  0.00    +0.009 A 
ATOM      9  C   UNL     1      -1.681  -1.228  -1.016  0.00  0.00    -0.013 A 
ATOM     10  C   UNL     1      -2.012   0.011  -0.460  0.00  0.00    +0.032 A 
ATOM     11  C   UNL     1      -2.791   0.943  -1.154  0.00  0.00    +0.034 A 
ATOM     12  C   UNL     1      -3.311   0.582  -2.402  0.00  0.00    +0.023 A 
BRANCH   9  13
ATOM     13  C   UNL     1      -0.756  -2.091  -0.307  0.00  0.00    +0.020 A 
ATOM     14  C   UNL     1      -0.764  -3.469  -0.353  0.00  0.00    +0.203 A 
ATOM     15  O   UNL     1       0.250  -3.982   0.395  0.00  0.00    -0.470 OA
ATOM     16  C   UNL     1       0.916  -2.928   0.930  0.00  0.00    +0.195 A 
ATOM     17  C   UNL     1       0.333  -1.743   0.544  0.00  0.00    +0.049 A 
ENDBRANCH   9  13
ENDBRANCH   3  11
ENDBRANCH   2   4
ENDBRANCH   1   2
BRANCH   1  18
ATOM     18  C   UNL     1      -4.937   5.556   1.012  0.00  0.00    +0.256 C 
BRANCH  18  19
ATOM     19  C   UNL     1      -4.514   6.531  -0.077  0.00  0.00    +0.243 C 
ATOM     20  O   UNL     1      -3.794   7.501   0.163  0.00  0.00    -0.273 OA
ATOM     21  N   UNL     1      -4.954   6.155  -1.342  0.00  0.00    -0.283 N 
ATOM     22  H   UNL     1      -5.896   5.764  -1.346  0.00  0.00    +0.155 HD
BRANCH  21  23
ATOM     23  C   UNL     1      -4.534   6.859  -2.495  0.00  0.00    +0.048 A 
ATOM     24  C   UNL     1      -5.451   7.322  -3.453  0.00  0.00    +0.081 A 
ATOM     25  C   UNL     1      -4.989   8.064  -4.551  0.00  0.00    +0.036 A 
ATOM     26  C   UNL     1      -3.623   8.277  -4.724  0.00  0.00    +0.042 A 
ATOM     27  C   UNL     1      -2.706   7.775  -3.807  0.00  0.00    +0.022 A 
ATOM     28  C   UNL     1      -3.162   7.077  -2.690  0.00  0.00    +0.025 A 
ATOM     29 CL   UNL     1      -3.073   9.181  -6.079  0.00  0.00    -0.084 Cl
BRANCH  24  30
ATOM     30  C   UNL     1      -6.913   7.145  -3.249  0.00  0.00    +0.339 C 
ATOM     31  O   UNL     1      -7.418   7.079  -2.141  0.00  0.00    -0.245 OA
BRANCH  30  32
ATOM     32  O   UNL     1      -7.615   6.996  -4.386  0.00  0.00    -0.477 OA
ATOM     33  H   UNL     1      -7.100   6.912  -5.209  0.00  0.00    +0.295 HD
ENDBRANCH  30  32
ENDBRANCH  24  30
ENDBRANCH  21  23
ENDBRANCH  18  19
ENDBRANCH   1  18
TORSDOF 9
